
     RDKit          3D

 50 40  0  0  0  0  0  0  0  0999 V2000
  -21.2340  -24.4190    0.6130 S   0  0  1  0  0  0  0  0  0  0  0  0
  -21.1090  -25.7930    0.2120 O   0  0  0  0  0  0  0  0  0  0  0  0
  -21.8340  -24.3610    1.9220 O   0  0  0  0  0  0  0  0  0  0  0  0
  -19.9290  -23.8200    0.6640 O   0  0  0  0  0  0  0  0  0  0  0  0
  -22.0520  -23.6950   -0.3180 O   0  0  0  0  0  0  0  0  0  0  0  0
  -45.1650   -6.8250    8.5660 S   0  0  1  0  0  0  0  0  0  0  0  0
  -45.8540   -8.0810    8.6900 O   0  0  0  0  0  0  0  0  0  0  0  0
  -45.6250   -5.9270    9.5920 O   0  0  0  0  0  0  0  0  0  0  0  0
  -43.7470   -7.0340    8.7110 O   0  0  0  0  0  0  0  0  0  0  0  0
  -45.4400   -6.2560    7.2740 O   0  0  0  0  0  0  0  0  0  0  0  0
  -15.1800  -38.4170  -22.0770 S   0  0  1  0  0  0  0  0  0  0  0  0
  -14.9360  -39.3500  -23.1450 O   0  0  0  0  0  0  0  0  0  0  0  0
  -16.3580  -38.8110  -21.3460 O   0  0  0  0  0  0  0  0  0  0  0  0
  -14.0420  -38.3910  -21.2000 O   0  0  0  0  0  0  0  0  0  0  0  0
  -15.3770  -37.0980  -22.6300 O   0  0  0  0  0  0  0  0  0  0  0  0
  -41.1820   -5.6140  -23.8120 S   0  0  1  0  0  0  0  0  0  0  0  0
  -40.9720   -5.9740  -25.1920 O   0  0  0  0  0  0  0  0  0  0  0  0
  -42.3020   -6.3540  -23.2940 O   0  0  0  0  0  0  0  0  0  0  0  0
  -40.0050   -5.9440  -23.0370 O   0  0  0  0  0  0  0  0  0  0  0  0
  -41.4470   -4.2020  -23.7250 O   0  0  0  0  0  0  0  0  0  0  0  0
  -28.7780  -20.8810   -2.6360 S   0  0  1  0  0  0  0  0  0  0  0  0
  -29.5260  -22.0790   -2.3700 O   0  0  0  0  0  0  0  0  0  0  0  0
  -29.1550  -19.8610   -1.6930 O   0  0  0  0  0  0  0  0  0  0  0  0
  -27.3720  -21.1630   -2.5040 O   0  0  0  0  0  0  0  0  0  0  0  0
  -29.0680  -20.4190   -3.9700 O   0  0  0  0  0  0  0  0  0  0  0  0
  -10.8260  -17.0210   -5.3730 S   0  0  1  0  0  0  0  0  0  0  0  0
  -10.7550  -17.7070   -6.6230 O   0  0  0  0  0  0  0  0  0  0  0  0
  -11.8470  -17.6150   -4.5560 O   0  0  0  0  0  0  0  0  0  0  0  0
   -9.5620  -17.1060   -4.6950 O   0  0  0  0  0  0  0  0  0  0  0  0
  -11.1480  -15.6360   -5.6140 O   0  0  0  0  0  0  0  0  0  0  0  0
  -30.5230  -29.9700    9.5310 S   0  0  2  0  0  0  0  0  0  0  0  0
  -31.3600  -29.8590    8.3650 O   0  0  0  0  0  0  0  0  0  0  0  0
  -30.8770  -31.1700   10.2470 O   0  0  0  0  0  0  0  0  0  0  0  0
  -30.7080  -28.8350   10.3940 O   0  0  0  0  0  0  0  0  0  0  0  0
  -29.1410  -30.0560    9.1380 O   0  0  0  0  0  0  0  0  0  0  0  0
  -25.0220    1.4360   -7.4580 S   0  0  1  0  0  0  0  0  0  0  0  0
  -25.1110    0.2180   -8.2220 O   0  0  0  0  0  0  0  0  0  0  0  0
  -26.3370    1.9790   -7.2630 O   0  0  0  0  0  0  0  0  0  0  0  0
  -24.4440    1.1760   -6.1750 O   0  0  0  0  0  0  0  0  0  0  0  0
  -24.1990    2.3780   -8.1610 O   0  0  0  0  0  0  0  0  0  0  0  0
  -10.4700  -18.0010    6.0540 S   0  0  2  0  0  0  0  0  0  0  0  0
  -10.0740  -17.9930    7.4350 O   0  0  0  0  0  0  0  0  0  0  0  0
  -11.8690  -18.3170    5.9550 O   0  0  0  0  0  0  0  0  0  0  0  0
   -9.7080  -18.9890    5.3430 O   0  0  0  0  0  0  0  0  0  0  0  0
  -10.2360  -16.7130    5.4670 O   0  0  0  0  0  0  0  0  0  0  0  0
    2.1930   23.8840    8.3490 S   0  0  2  0  0  0  0  0  0  0  0  0
    1.1530   24.7790    8.7800 O   0  0  0  0  0  0  0  0  0  0  0  0
    1.8890   22.5520    8.7950 O   0  0  0  0  0  0  0  0  0  0  0  0
    3.4470   24.3000    8.9160 O   0  0  0  0  0  0  0  0  0  0  0  0
    2.2910   23.9110    6.9160 O   0  0  0  0  0  0  0  0  0  0  0  0
  1  2  1  6
  3  1  1  0
  4  1  1  0
  5  1  1  0
  6  7  1  6
  8  6  1  0
  9  6  1  0
 10  6  1  0
 11 12  1  6
 13 11  1  0
 14 11  1  0
 15 11  1  0
 16 17  1  6
 18 16  1  0
 19 16  1  0
 20 16  1  0
 21 22  1  1
 23 21  1  0
 24 21  1  0
 25 21  1  0
 26 27  1  6
 28 26  1  0
 29 26  1  0
 30 26  1  0
 31 32  1  6
 33 31  1  0
 34 31  1  0
 35 31  1  0
 36 37  1  6
 38 36  1  0
 39 36  1  0
 40 36  1  0
 41 42  1  1
 43 41  1  0
 44 41  1  0
 45 41  1  0
 46 47  1  6
 48 46  1  0
 49 46  1  0
 50 46  1  0
M  END

